Circuit: * C:\Program Files\LTC\LTspiceIV\examples\Educational\1563.asc


Date: Fri Oct 26 05:16:37 2018
Total elapsed time: 0.047 seconds.

tnom = 27
temp = 27
method = trap
totiter = 0
traniter = 0
tranpoints = 0
accept = 0
rejected = 0
matrix size = 11
fillins = 9
solver = Normal

