Circuit: * C:\Program Files\LTC\LTspiceIV\examples\Educational\butter.asc


Date: Fri Oct 26 05:17:12 2018
Total elapsed time: 0.050 seconds.

tnom = 27
temp = 27
method = trap
totiter = 0
traniter = 0
tranpoints = 0
accept = 0
rejected = 0
matrix size = 20
fillins = 0
solver = Normal

