Circuit: * C:\Program Files\LTC\LTspiceIV\examples\Educational\Clapp.asc

.OP point found by inspection.

Date: Fri Oct 26 04:51:43 2018
Total elapsed time: 2.065 seconds.

tnom = 27
temp = 27
method = modified trap
totiter = 111596
traniter = 111596
tranpoints = 35632
accept = 25620
rejected = 10012
matrix size = 8
fillins = 0
solver = Normal
Matrix Compiler1: 460 bytes object code size  3.0/2.7/[2.3]
Matrix Compiler2: 608 bytes object code size  2.7/2.8/[2.3]


