Circuit: * C:\Program Files\LTC\LTspiceIV\examples\Educational\Cohn.asc


Date: Fri Oct 26 05:18:25 2018
Total elapsed time: 0.040 seconds.

tnom = 27
temp = 27
method = trap
totiter = 0
traniter = 0
tranpoints = 0
accept = 0
rejected = 0
matrix size = 9
fillins = 1
solver = Normal

