Circuit: * Z:\home\handiko\myLTspiceIV\Examples\Educational\Cohn.asc


Date: Mon Nov 05 19:13:40 2018
Total elapsed time: 0.046 seconds.

tnom = 27
temp = 27
method = trap
totiter = 0
traniter = 0
tranpoints = 0
accept = 0
rejected = 0
matrix size = 9
fillins = 1
solver = Normal

