Circuit: * C:\Program Files\LTC\LTspiceIV\examples\Educational\colpits.asc

WARNING: Node N004 is floating.

.OP point found by inspection.

Date: Fri Oct 26 04:57:36 2018
Total elapsed time: 1.128 seconds.

tnom = 27
temp = 27
method = modified trap
totiter = 46217
traniter = 46217
tranpoints = 17810
accept = 12536
rejected = 5274
matrix size = 9
fillins = 2
solver = Normal
Matrix Compiler1: 590 bytes object code size  1.5/1.4/[1.3]
Matrix Compiler2: 715 bytes object code size  1.3/1.5/[1.3]


