Circuit: * Z:\home\handiko\myLTspiceIV\examples\Educational\HalfSlope.asc

Laplace(G2): Window=29.116346µs Nfft=16384
.OP point found by inspection.

Date: Fri Oct 26 05:32:54 2018
Total elapsed time: 1.170 seconds.

tnom = 27
temp = 27
method = modified trap
totiter = 33968
traniter = 33968
tranpoints = 16985
accept = 16966
rejected = 19
matrix size = 3
fillins = 0
solver = Normal
Matrix Compiler1: 50 bytes object code size  1.1/1.1/[1.1]
Matrix Compiler2: 135 bytes object code size  1.1/1.1/[1.1]


