Circuit: * C:\Program Files\LTC\LTspiceIV\examples\Educational\Hartly.asc

WARNING: Less than two connections to node OUT.  This node is used by L3.
.OP point found by inspection.

Date: Fri Oct 26 05:13:32 2018
Total elapsed time: 1.052 seconds.

tnom = 27
temp = 27
method = modified trap
totiter = 49470
traniter = 49470
tranpoints = 15150
accept = 10827
rejected = 4323
matrix size = 13
fillins = 6
solver = Normal
Matrix Compiler1: 1.08 KB object code size  1.9/1.6/[1.4]
Matrix Compiler2: 1.12 KB object code size  1.4/1.7/[1.3]


