Circuit: * Z:\home\handiko\myLTspiceIV\examples\Educational\MeasureBW.asc

Direct Newton iteration for .op point succeeded.

tmp: MAX(mag(v(out)))=(43.2762dB,0°) FROM 1 TO 1e+007
bw=81949.4 FROM 73.2929 TO 82022.7


Date: Fri Oct 26 05:34:27 2018
Total elapsed time: 0.048 seconds.

tnom = 27
temp = 27
method = trap
totiter = 9
traniter = 0
tranpoints = 0
accept = 0
rejected = 0
matrix size = 10
fillins = 0
solver = Normal
Matrix Compiler1:      34 opcodes
Matrix Compiler2: 808 bytes object code size

