Circuit: * C:\Program Files\LTC\LTspiceIV\examples\Educational\NoiseFigure.asc

Direct Newton iteration for .op point succeeded.

Date: Fri Oct 26 05:16:08 2018
Total elapsed time: 0.042 seconds.

tnom = 27
temp = 27
method = trap
totiter = 4
traniter = 0
tranpoints = 0
accept = 0
rejected = 0
matrix size = 11
fillins = 0
solver = Normal
Matrix Compiler1:      33 opcodes
Matrix Compiler2: 847 bytes object code size

