Circuit: * C:\Program Files\LTC\LTspiceIV\examples\Educational\UHFpreamp.asc

Direct Newton iteration for .op point succeeded.

Date: Fri Oct 26 05:03:10 2018
Total elapsed time: 0.142 seconds.

tnom = 27
temp = 27
method = trap
totiter = 8
traniter = 0
tranpoints = 0
accept = 0
rejected = 0
matrix size = 34
fillins = 16
solver = Normal
Matrix Compiler1:     154 opcodes
Matrix Compiler2: 2.81 KB object code size

