Circuit: * Z:\home\handiko\myLTspiceIV\examples\jigs\1037CS.asc

Direct Newton iteration failed to find .op point.  (Use ".option noopiter" to skip.)
Starting Gmin stepping
Gmin = 10
Gmin = 1.07374
Gmin = 0.115292
Gmin = 0.0123794
Gmin = 0.00132923
Gmin = 0.000142725
Gmin = 1.5325e-005
Gmin = 1.6455e-006
Gmin = 1.76685e-007
Gmin = 1.89714e-008
Gmin = 2.03704e-009
Gmin = 2.18725e-010
Gmin = 2.34854e-011
Gmin = 2.52173e-012
Gmin = 2.70769e-013
Gmin = 0
Gmin stepping succeeded in finding the operating point.


Date: Fri Oct 26 05:30:47 2018
Total elapsed time: 0.290 seconds.

tnom = 27
temp = 27
method = modified trap
totiter = 2452
traniter = 2102
tranpoints = 1052
accept = 1052
rejected = 0
matrix size = 13
fillins = 6
solver = Normal
Matrix Compiler1: 668 bytes object code size  1.8/1.5/[1.3]
Matrix Compiler2: 1.28 KB object code size  2.7/3.4/[2.4]


